A48R-LD-4
                    3D
 Schrodinger Suite 2022-3.
 59 62  0  0  1  0            999 V2000
   -3.8602   -9.9161   -7.5799 C   0  0  0  0  0  0
   -4.6162  -10.5969   -8.5513 C   0  0  0  0  0  0
   -5.5656  -11.6236   -8.0683 C   0  0  0  0  0  0
   -3.9661  -10.2208   -6.2287 O   0  0  0  0  0  0
   -2.9487   -8.9174   -7.9440 C   0  0  0  0  0  0
   -4.7841  -11.2208   -5.7719 C   0  0  0  0  0  0
   -5.6210  -11.9118   -6.7530 C   0  0  0  0  0  0
    3.9433   -6.3451   -6.9666 N   0  0  0  0  0  0
    2.2878   -8.3316   -8.4462 N   0  3  0  0  0  0
   -4.4279  -10.2903   -9.9025 C   0  0  0  0  0  0
   -2.7432   -8.6547   -9.3052 C   0  0  0  0  0  0
   -1.8026   -7.7349   -9.6928 O   0  0  0  0  0  0
    4.2154   -7.7985   -6.9906 C   0  0  0  0  0  0
    2.5166   -6.1461   -7.2776 C   0  0  0  0  0  0
   -4.7251  -11.4511   -4.5697 O   0  0  0  0  0  0
    4.6273   -5.5041   -6.0843 C   0  0  0  0  0  0
   -3.4888   -9.3315  -10.2737 C   0  0  0  0  0  0
    1.6947   -9.1144   -9.6325 C   0  0  0  0  0  0
    1.9709   -6.8301   -8.5327 C   0  0  0  0  0  0
    3.8150   -8.4665   -8.3257 C   0  0  0  0  0  0
    0.1643   -9.2907   -9.4886 C   0  0  1  0  0  0
   -0.6459   -8.2660  -10.3441 C   0  0  0  0  0  0
   -6.4320  -12.3577   -9.0812 C   0  0  0  0  0  0
   -2.1895   -8.1405   -6.8714 C   0  0  0  0  0  0
   -0.2117  -10.6200   -9.8286 O   0  0  0  0  0  0
    5.9880   -5.7065   -5.8160 C   0  0  0  0  0  0
    4.0029   -4.3881   -5.5037 C   0  0  0  0  0  0
    4.7057   -3.5110   -4.6899 C   0  0  0  0  0  0
    6.6978   -4.8361   -4.9956 C   0  0  0  0  0  0
    6.0518   -3.7407   -4.4368 C   0  0  0  0  0  0
   -6.3017  -12.6741   -6.4093 H   0  0  0  0  0  0
   -4.9880  -10.7972  -10.6738 H   0  0  0  0  0  0
    3.6465   -8.2687   -6.1841 H   0  0  0  0  0  0
    5.2438   -8.0346   -6.7451 H   0  0  0  0  0  0
    2.2304   -5.1074   -7.3152 H   0  0  0  0  0  0
    1.9784   -6.5704   -6.4494 H   0  0  0  0  0  0
   -3.3326   -9.1130  -11.3195 H   0  0  0  0  0  0
    2.2404  -10.0580   -9.6969 H   0  0  0  0  0  0
    1.9398   -8.4737  -10.4654 H   0  0  0  0  0  0
    2.4126   -6.4368   -9.4500 H   0  0  0  0  0  0
    0.8866   -6.7343   -8.5744 H   0  0  0  0  0  0
    4.0554   -9.5277   -8.3359 H   0  0  0  0  0  0
    4.2636   -7.9916   -9.2004 H   0  0  0  0  0  0
   -0.1064   -9.1679   -8.4395 H   0  0  0  0  0  0
   -0.8945   -8.6743  -11.3255 H   0  0  0  0  0  0
   -0.0359   -7.3919  -10.5637 H   0  0  0  0  0  0
   -5.8120  -12.9021   -9.7943 H   0  0  0  0  0  0
   -7.0650  -11.6548   -9.6240 H   0  0  0  0  0  0
   -7.0889  -13.0844   -8.6014 H   0  0  0  0  0  0
   -1.6272   -7.2982   -7.2743 H   0  0  0  0  0  0
   -2.8913   -7.7370   -6.1392 H   0  0  0  0  0  0
   -1.5089   -8.8066   -6.3421 H   0  0  0  0  0  0
    0.3989  -10.9750  -10.4878 H   0  0  0  0  0  0
    6.5265   -6.5283   -6.2520 H   0  0  0  0  0  0
    2.9631   -4.1664   -5.6664 H   0  0  0  0  0  0
    4.1955   -2.6674   -4.2551 H   0  0  0  0  0  0
    7.7491   -5.0009   -4.8159 H   0  0  0  0  0  0
    6.6045   -3.0584   -3.8163 H   0  0  0  0  0  0
    1.9050   -8.7341   -7.6002 H   0  0  0  0  0  0
  1  2  1  0  0  0
  1  4  1  0  0  0
  1  5  2  0  0  0
  2  3  1  0  0  0
  2 10  2  0  0  0
  3 23  1  0  0  0
  3  7  2  0  0  0
  4  6  1  0  0  0
  5 11  1  0  0  0
  5 24  1  0  0  0
  6  7  1  0  0  0
  6 15  2  0  0  0
  7 31  1  0  0  0
  8 13  1  0  0  0
  8 16  1  0  0  0
  8 14  1  0  0  0
  9 18  1  0  0  0
  9 19  1  0  0  0
  9 20  1  0  0  0
  9 59  1  0  0  0
 10 17  1  0  0  0
 10 32  1  0  0  0
 11 12  1  0  0  0
 11 17  2  0  0  0
 12 22  1  0  0  0
 13 20  1  0  0  0
 13 33  1  0  0  0
 13 34  1  0  0  0
 14 19  1  0  0  0
 14 35  1  0  0  0
 14 36  1  0  0  0
 16 26  2  0  0  0
 16 27  1  0  0  0
 17 37  1  0  0  0
 18 21  1  0  0  0
 18 38  1  0  0  0
 18 39  1  0  0  0
 19 40  1  0  0  0
 19 41  1  0  0  0
 20 42  1  0  0  0
 20 43  1  0  0  0
 21 22  1  0  0  0
 21 25  1  0  0  0
 21 44  1  0  0  0
 22 45  1  0  0  0
 22 46  1  0  0  0
 23 47  1  0  0  0
 23 48  1  0  0  0
 23 49  1  0  0  0
 24 50  1  0  0  0
 24 51  1  0  0  0
 24 52  1  0  0  0
 25 53  1  0  0  0
 26 29  1  0  0  0
 26 54  1  0  0  0
 27 28  2  0  0  0
 27 55  1  0  0  0
 28 30  1  0  0  0
 28 56  1  0  0  0
 29 30  2  0  0  0
 29 57  1  0  0  0
 30 58  1  0  0  0
M  CHG  1   9   1
M  END
> <s_m_entry_id>
24

> <s_m_entry_name>
xglide_HTVS__glide-grid_ThymidylateKinase__dock_lib.15976

> <s_m_Source_Path>
E:\MonkeyPox\DockingAnalysis\Top5_Leads

> <s_m_Source_File>
Top5_Leads.mae

> <i_m_Source_File_Index>
24

> <s_m_job_name>
prime_mmgbsa_ThymidyalateKinase

> <IDNUMBER>
Y040-5183

> <canvasUID>
82794

> <i_lp_mmshare_version>
59121

> <i_f3d_flags>
0

> <s_epik_input>
bzFjKD1PKVtjSF1jKFtDSDNdKWMoYzEyKVtjSF1bY0hdYyhjMltDSDNdKU9bQ0gyXVtDQEBIXShbT0hdKVtDSDJdTihbQ0gyXVtDSDJdMylbQ0gyXVtDSDJdTjNjNFtjSF1bY0hdW2NIXVtjSF1bY0hdNA==

> <s_epik_cmdline>
J2VwaWtfcHl0aG9uJywgJy1waCcsICc3LjQnLCAnLXRuJywgJzgnLCAnLW1hJywgJzUwMCcsICctaW1hZScsICc8aW5maWxlLm1hZT4nLCAnLW9tYWUnLCAnPG91dGZpbGUubWFlPic=

> <r_epik_Ionization_Penalty>
  0.0147

> <r_epik_Ionization_Penalty_Charging>
  0.0147

> <r_epik_Ionization_Penalty_Neutral>
  0.0001

> <r_epik_State_Penalty>
  0.0147

> <r_epik_Charging_Adjusted_Penalty>
0.0293096

> <i_epik_Tot_Q>
1

> <i_epik_Tot_abs_Q>
1

> <s_lp_Force_Field>
S-OPLS

> <r_lp_Energy>
58.6859

> <b_lp_Chiralities_Consistent>
1

> <s_lp_Variant>
Untitled_Molecule_182793-2

> <i_xglide_ligandID>
294672

> <s_i_glide_gridfile>
glide-grid_ThymidylateKinase

> <i_i_glide_lignum>
375

> <i_i_glide_rotatable_bonds>
7

> <r_i_docking_score>
-9.59610441866766

> <r_i_glide_ligand_efficiency>
-0.319870147288922

> <r_i_glide_ligand_efficiency_sa>
-0.993910918213558

> <r_i_glide_ligand_efficiency_ln>
-2.18033948185337

> <r_i_glide_gscore>
-9.61080441866766

> <r_i_glide_lipo>
-1.90214603100087

> <r_i_glide_hbond>
-0.553658427576692

> <r_i_glide_metal>
0

> <r_i_glide_rewards>
-1.95377737421585

> <r_i_glide_evdw>
-36.6026725769043

> <r_i_glide_ecoul>
-11.4319448471069

> <r_i_glide_erotb>
0.493197641876347

> <r_i_glide_esite>
-0.0852611690141053

> <r_i_glide_emodel>
-76.7367553710938

> <r_i_glide_energy>
-48.0346174240112

> <r_i_glide_einternal>
5.97928905487061

> <i_i_glide_confnum>
1

> <i_i_glide_posenum>
2

> <r_i_glide_eff_state_penalty>
0.0147

> <r_glide_XP_GScore>
-9.61080441866766

> <r_glide_XP_HBond>
-1.56990795540085

> <r_glide_XP_PhobEn>
-0.842825196282423

> <r_glide_XP_PhobEnHB>
0

> <r_glide_XP_LowMW>
-0.135006466666666

> <r_glide_XP_RotPenal>
0.211370426346112

> <r_glide_XP_LipophilicEvdW>
-3.24951413964891

> <r_glide_XP_PhobEnPairHB>
-1.95

> <r_glide_XP_Electro>
-0.85739586353302

> <r_glide_XP_Sitemap>
0

> <r_glide_XP_Penalties>
0

> <r_glide_XP_PiStack>
0

> <r_glide_XP_HBPenal>
0

> <r_glide_XP_ExposPenal>
0.282474776518097

> <r_glide_XP_PiCat>
0

> <r_glide_XP_ClBr>
0

> <r_glide_XP_Zpotr>
-1.5

> <i_glide_XP_PoseRank>
1

> <i_psp_model_num>
0

> <r_psp_Prime_Coulomb>
-6405.80360041774

> <r_psp_Prime_Covalent>
879.412889964848

> <r_psp_Prime_vdW>
-965.57229461984

> <r_psp_Prime_Lipo>
-517.853865927193

> <r_psp_Prime_Solv_GB>
-1394.60497725721

> <r_psp_Prime_Energy>
-8571.02642637643

> <s_psp_Prime_Energy_Force_Field>
S-OPLS

> <s_psp_Prime_Energy_Solvent_Model>
VSGB2.1

> <r_psp_Prime_Bond_Covalent>
90.3248318105454

> <r_psp_Prime_Bond_SGB>
14125.0935142019

> <r_psp_Prime_Angle_Covalent>
393.020147182582

> <r_psp_Prime_Angle_SGB>
-5616.26768822642

> <r_psp_Prime_Torsion_Covalent>
396.06791097172

> <r_psp_Prime_NB14_LJ>
1039.22704232651

> <r_psp_Prime_NB14_Lipo>
0

> <r_psp_Prime_NB14_Elec>
6383.42786017078

> <r_psp_Prime_NB14_SGB>
-5581.67223030369

> <r_psp_Prime_NBShort_LJ>
-1916.41451868868

> <r_psp_Prime_NBShort_Lipo>
-517.853865927193

> <r_psp_Prime_NBShort_Elec>
-13188.4743497315

> <r_psp_Prime_NBShort_SGB>
6246.38157981737

> <r_psp_Prime_NBLong_LJ>
-88.3848182576756

> <r_psp_Prime_NBLong_Lipo>
0

> <r_psp_Prime_NBLong_Elec>
399.242889142945

> <r_psp_Prime_NBLong_SGB>
-385.56471212307

> <r_psp_Prime_Self_SGB>
-10182.5754406233

> <r_psp_Prime_Hbond>
-121.843196280654

> <r_psp_Prime_Packing>
-19.5303662349415

> <r_psp_Prime_SelfCont>
-25.2310156036947

> <s_psp_Prime_MMGBSA_Input_Structure_Hash>
ab15ab400b25bd90576ed66721898ff1ba112e7a46e9c21dab1ab8e7

> <i_psp_number_heavy_atoms>
30

> <s_psp_MMGBSA_moved_residues>


> <r_psp_MMGBSA_dG_Bind>
-46.0620866160079

> <r_psp_MMGBSA_dG_Bind_Coulomb>
-44.5372078601995

> <r_psp_MMGBSA_dG_Bind_Covalent>
6.32796318056091

> <r_psp_MMGBSA_dG_Bind_Hbond>
-2.80362917889305

> <r_psp_MMGBSA_dG_Bind_Lipo>
-20.6213752233575

> <r_psp_MMGBSA_dG_Bind_Packing>
-3.67339225697665

> <r_psp_MMGBSA_dG_Bind_SelfCont>
0

> <r_psp_MMGBSA_dG_Bind_Solv_GB>
59.579418005706

> <r_psp_MMGBSA_dG_Bind_vdW>
-40.3338632828489

> <r_psp_Lig_Strain_Energy>
15.8907405960301

> <r_psp_Lig_Strain_Coulomb>
2.2664864081243

> <r_psp_Lig_Strain_Covalent>
6.32799453321738

> <r_psp_Lig_Strain_Hbond>
0

> <r_psp_Lig_Strain_Lipo>
3.41770906260052

> <r_psp_Lig_Strain_Packing>
0

> <r_psp_Lig_Strain_SelfCont>
0

> <r_psp_Lig_Strain_Solv_GB>
-2.19423988535281

> <r_psp_Lig_Strain_vdW>
6.07279047744074

> <r_psp_Ligand_Energy>
29.9911814881169

> <r_psp_Ligand_Coulomb>
0.838905057742155

> <r_psp_Ligand_Covalent>
23.3569267678116

> <r_psp_Ligand_Hbond>
0

> <r_psp_Ligand_Lipo>
-8.61162466516548

> <r_psp_Ligand_Packing>
0

> <r_psp_Ligand_SelfCont>
0

> <r_psp_Ligand_Solv_GB>
-16.8116604588218

> <r_psp_Ligand_vdW>
31.2186347865504

> <r_psp_Complex_Energy>
-8571.02642637643

> <r_psp_Complex_Coulomb>
-6405.80360041774

> <r_psp_Complex_Covalent>
879.412889964848

> <r_psp_Complex_Hbond>
-121.843196280654

> <r_psp_Complex_Lipo>
-517.853865927193

> <r_psp_Complex_Packing>
-19.5303662349415

> <r_psp_Complex_SelfCont>
-25.2310156036947

> <r_psp_Complex_Solv_GB>
-1394.60497725721

> <r_psp_Complex_vdW>
-965.57229461984

> <r_psp_Receptor_Energy>
-8554.95552124853

> <r_psp_Receptor_Coulomb>
-6362.10529761529

> <r_psp_Receptor_Covalent>
849.728000016475

> <r_psp_Receptor_Hbond>
-119.039567101761

> <r_psp_Receptor_Lipo>
-488.62086603867

> <r_psp_Receptor_Packing>
-15.8569739779648

> <r_psp_Receptor_SelfCont>
-25.2310156036947

> <r_psp_Receptor_Solv_GB>
-1437.37273480409

> <r_psp_Receptor_vdW>
-956.457066123541

> <r_psp_MMGBSA_dG_Bind(NS)>
-61.9528272120388

> <r_psp_MMGBSA_dG_Bind(NS)_Coulomb>
-46.8036942683239

> <r_psp_MMGBSA_dG_Bind(NS)_Covalent>
-3.1352656492345e-05

> <r_psp_MMGBSA_dG_Bind(NS)_Hbond>
-2.80362917889305

> <r_psp_MMGBSA_dG_Bind(NS)_Lipo>
-24.039084285958

> <r_psp_MMGBSA_dG_Bind(NS)_Packing>
-3.67339225697665

> <r_psp_MMGBSA_dG_Bind(NS)_SelfCont>
0

> <r_psp_MMGBSA_dG_Bind(NS)_Solv_GB>
61.773657891059

> <r_psp_MMGBSA_dG_Bind(NS)_vdW>
-46.4066537602896

> <r_psp_Rec_Strain_Energy>
0

> <r_psp_Rec_Strain_Coulomb>
0

> <r_psp_Rec_Strain_Covalent>
0

> <r_psp_Rec_Strain_Hbond>
0

> <r_psp_Rec_Strain_Lipo>
0

> <r_psp_Rec_Strain_Packing>
0

> <r_psp_Rec_Strain_SelfCont>
0

> <r_psp_Rec_Strain_Solv_GB>
0

> <r_psp_Rec_Strain_vdW>
0

> <r_psp_Prime_MMGBSA_ligand_efficiency>
-1.53540288720026

> <r_psp_Prime_MMGBSA_ligand_efficiency_sa>
-2.3031043308004

> <r_psp_Prime_MMGBSA_ligand_efficiency_ln>
-10.4658079657887

> <LIBRARY>
Phosphatase

> <MOLWEIGHT>
408.5

> <No>
90189

> <PLATE>
PLATE_1128

> <WELL>
E05

> <s_m_subgroup_title>
Top5_Leads->prime_mmgbsa_ThymidyalateKinase-out1

> <s_m_subgroupid>
Top5_Leads->prime_mmgbsa_ThymidyalateKinase-out11

> <b_m_subgroup_collapsed>
0

$$$$
