F13L-LD-4
                    3D
 Schrodinger Suite 2022-3.
 50 52  0  0  1  0            999 V2000
    6.1276    1.2336    6.3451 C   0  0  0  0  0  0
    5.0555    2.1159    6.5171 C   0  0  0  0  0  0
    7.2641    1.8890    6.8204 N   0  0  0  0  0  0
    6.9209    3.1412    7.3243 C   0  0  0  0  0  0
    5.5250    3.3238    7.1104 C   0  0  0  0  0  0
    5.9983   -0.1031    5.7131 C   0  0  0  0  0  0
    3.5734    0.5242    5.5159 N   0  0  0  0  0  0
    4.6835   -0.3126    5.3964 N   0  0  0  0  0  0
    3.7472    1.6739    6.0451 C   0  0  0  0  0  0
   10.7048   -0.9783    7.6126 C   0  0  0  0  0  0
    6.8449   -0.9453    5.4254 O   0  0  0  0  0  0
    9.7342   -1.6145    7.2132 O   0  0  0  0  0  0
    8.6333    1.3829    6.7797 C   0  0  0  0  0  0
   11.9423   -1.4754    7.5931 N   0  0  0  0  0  0
    7.7078    4.1380    7.9227 C   0  0  0  0  0  0
    4.9347    4.5422    7.4722 C   0  0  0  0  0  0
   12.4144   -3.7909    8.3661 C   0  0  0  0  0  0
    9.1188    0.9914    8.1880 C   0  0  0  0  0  0
   10.5589    0.4325    8.1918 C   0  0  0  0  0  0
   10.3007   -5.0254    7.9210 O   0  0  0  0  0  0
   12.3074   -2.8207    7.1759 C   0  0  0  0  0  0
   11.0551   -4.2987    8.8917 C   0  0  0  0  0  0
   10.8851   -6.2453    7.4733 C   0  0  0  0  0  0
    7.0765    5.3293    8.2843 C   0  0  0  0  0  0
    5.7195    5.5335    8.0587 C   0  0  0  0  0  0
   11.4407   -6.0677    6.0586 C   0  0  0  0  0  0
    4.4894   -1.2077    4.9510 H   0  0  0  0  0  0
    2.8835    2.3246    6.0940 H   0  0  0  0  0  0
    9.2726    2.1543    6.3493 H   0  0  0  0  0  0
    8.7001    0.5445    6.0892 H   0  0  0  0  0  0
   12.7133   -0.8659    7.8611 H   0  0  0  0  0  0
    8.7671    4.0025    8.0749 H   0  0  0  0  0  0
    3.8917    4.6992    7.2770 H   0  0  0  0  0  0
   12.9566   -3.3085    9.1801 H   0  0  0  0  0  0
   13.0338   -4.6415    8.0873 H   0  0  0  0  0  0
    8.4326    0.2639    8.6279 H   0  0  0  0  0  0
    9.0847    1.8585    8.8469 H   0  0  0  0  0  0
   10.9079    0.3792    9.2233 H   0  0  0  0  0  0
   11.2313    1.1113    7.6662 H   0  0  0  0  0  0
   13.2514   -2.7755    6.6431 H   0  0  0  0  0  0
   11.5964   -3.1978    6.4399 H   0  0  0  0  0  0
   10.4493   -3.4560    9.2255 H   0  0  0  0  0  0
   11.2025   -4.9209    9.7763 H   0  0  0  0  0  0
   10.1086   -7.0074    7.4690 H   0  0  0  0  0  0
   11.6511   -6.6185    8.1515 H   0  0  0  0  0  0
    7.6566    6.1229    8.7368 H   0  0  0  0  0  0
    5.2739    6.4787    8.3395 H   0  0  0  0  0  0
   11.8680   -6.9977    5.6848 H   0  0  0  0  0  0
   12.2093   -5.3103    6.0042 H   0  0  0  0  0  0
   10.6585   -5.7712    5.3711 H   0  0  0  0  0  0
  1  2  2  0  0  0
  1  3  1  0  0  0
  1  6  1  0  0  0
  2  5  1  0  0  0
  2  9  1  0  0  0
  3  4  1  0  0  0
  3 13  1  0  0  0
  4 15  2  0  0  0
  4  5  1  0  0  0
  5 16  2  0  0  0
  6  8  1  0  0  0
  6 11  2  0  0  0
  7  8  1  0  0  0
  7  9  2  0  0  0
  8 27  1  0  0  0
  9 28  1  0  0  0
 10 19  1  0  0  0
 10 12  2  0  0  0
 10 14  1  0  0  0
 13 18  1  0  0  0
 13 29  1  0  0  0
 13 30  1  0  0  0
 14 21  1  0  0  0
 14 31  1  0  0  0
 15 24  1  0  0  0
 15 32  1  0  0  0
 16 25  1  0  0  0
 16 33  1  0  0  0
 17 21  1  0  0  0
 17 22  1  0  0  0
 17 34  1  0  0  0
 17 35  1  0  0  0
 18 19  1  0  0  0
 18 36  1  0  0  0
 18 37  1  0  0  0
 19 38  1  0  0  0
 19 39  1  0  0  0
 20 22  1  0  0  0
 20 23  1  0  0  0
 21 40  1  0  0  0
 21 41  1  0  0  0
 22 42  1  0  0  0
 22 43  1  0  0  0
 23 26  1  0  0  0
 23 44  1  0  0  0
 23 45  1  0  0  0
 24 25  2  0  0  0
 24 46  1  0  0  0
 25 47  1  0  0  0
 26 48  1  0  0  0
 26 49  1  0  0  0
 26 50  1  0  0  0
M  END
> <s_m_entry_id>
10

> <s_m_entry_name>
xglide_HTVS__glide-grid_F13__dock_lib.15711

> <s_m_Source_Path>
E:\MonkeyPox\DockingAnalysis\Top5_Leads

> <s_m_Source_File>
Top5_Leads.mae

> <i_m_Source_File_Index>
10

> <s_m_job_name>
prime_mmgbsa_F13

> <IDNUMBER>
C884-2455

> <canvasUID>
27088

> <i_lp_mmshare_version>
59121

> <i_f3d_flags>
0

> <s_epik_input>
Tz1jMVtuSF1uW2NIXWMoYzEyKWMzYyhbY0hdW2NIXVtjSF1bY0hdMyluMltDSDJdW0NIMl1bQ0gyXUMoPU8pW05IXVtDSDJdW0NIMl1bQ0gyXU9bQ0gyXVtDSDNd

> <s_epik_cmdline>
J2VwaWtfcHl0aG9uJywgJy1waCcsICc3LjQnLCAnLXRuJywgJzgnLCAnLW1hJywgJzUwMCcsICctaW1hZScsICc8aW5maWxlLm1hZT4nLCAnLW9tYWUnLCAnPG91dGZpbGUubWFlPic=

> <r_epik_Ionization_Penalty>
  0.0001

> <r_epik_Ionization_Penalty_Charging>
  0.0001

> <r_epik_Ionization_Penalty_Neutral>
  0.0000

> <r_epik_State_Penalty>
  0.0000

> <r_epik_Charging_Adjusted_Penalty>
8.86672e-05

> <i_epik_Tot_Q>
0

> <i_epik_Tot_abs_Q>
0

> <s_lp_Force_Field>
S-OPLS

> <r_lp_Energy>
30.6901

> <b_lp_Chiralities_Consistent>
1

> <s_lp_Variant>
Untitled_Molecule_127087-1

> <i_xglide_ligandID>
194589

> <s_i_glide_gridfile>
glide-grid_F13

> <i_i_glide_lignum>
71

> <i_i_glide_rotatable_bonds>
10

> <r_i_docking_score>
-8.91333179489154

> <r_i_glide_ligand_efficiency>
-0.342820453649675

> <r_i_glide_ligand_efficiency_sa>
-1.01560424500381

> <r_i_glide_ligand_efficiency_ln>
-2.09326672500316

> <r_i_glide_gscore>
-8.91333179489154

> <r_i_glide_lipo>
-1.96370810316672

> <r_i_glide_hbond>
-1.18613635093693

> <r_i_glide_metal>
0

> <r_i_glide_rewards>
-1.9352251174371

> <r_i_glide_evdw>
-40.1798515319824

> <r_i_glide_ecoul>
-13.1964826583862

> <r_i_glide_erotb>
1.20484675600056

> <r_i_glide_esite>
-0.0666717800286475

> <r_i_glide_emodel>
-72.9014814180873

> <r_i_glide_energy>
-53.3763341903687

> <r_i_glide_einternal>
0.453267306089401

> <i_i_glide_confnum>
1

> <i_i_glide_posenum>
3

> <r_i_glide_eff_state_penalty>
0

> <r_lp_tautomer_probability>
1

> <r_glide_XP_GScore>
-8.91333179489154

> <r_glide_XP_HBond>
-2.61088123003455

> <r_glide_XP_PhobEn>
0

> <r_glide_XP_PhobEnHB>
-1.5

> <r_glide_XP_LowMW>
-0.311937133333333

> <r_glide_XP_RotPenal>
0.516362915947228

> <r_glide_XP_LipophilicEvdW>
-4.01733222947351

> <r_glide_XP_PhobEnPairHB>
0

> <r_glide_XP_Electro>
-0.989736199378967

> <r_glide_XP_Sitemap>
0

> <r_glide_XP_Penalties>
0.000192081381593174

> <r_glide_XP_PiStack>
0

> <r_glide_XP_HBPenal>
0

> <r_glide_XP_ExposPenal>
0

> <r_glide_XP_PiCat>
0

> <r_glide_XP_ClBr>
0

> <r_glide_XP_Zpotr>
0

> <i_glide_XP_PoseRank>
1

> <i_psp_model_num>
0

> <r_psp_Prime_Coulomb>
-11453.6517949219

> <r_psp_Prime_Covalent>
1608.42022800336

> <r_psp_Prime_vdW>
-1755.7309375334

> <r_psp_Prime_Lipo>
-915.825109102376

> <r_psp_Prime_Solv_GB>
-2008.25387494437

> <r_psp_Prime_Energy>
-14820.3850542758

> <s_psp_Prime_Energy_Force_Field>
S-OPLS

> <s_psp_Prime_Energy_Solvent_Model>
VSGB2.1

> <r_psp_Prime_Bond_Covalent>
151.816790073595

> <r_psp_Prime_Bond_SGB>
24610.3258822742

> <r_psp_Prime_Angle_Covalent>
731.953474074964

> <r_psp_Prime_Angle_SGB>
-10192.8174737007

> <r_psp_Prime_Torsion_Covalent>
724.649963854798

> <r_psp_Prime_NB14_LJ>
1827.02108373981

> <r_psp_Prime_NB14_Lipo>
0

> <r_psp_Prime_NB14_Elec>
10812.879760406

> <r_psp_Prime_NB14_SGB>
-8503.26430536433

> <r_psp_Prime_NBShort_LJ>
-3399.12021211629

> <r_psp_Prime_NBShort_Lipo>
-915.825109102376

> <r_psp_Prime_NBShort_Elec>
-22797.7150872904

> <r_psp_Prime_NBShort_SGB>
10107.5077967036

> <r_psp_Prime_NBLong_LJ>
-183.631809156922

> <r_psp_Prime_NBLong_Lipo>
0

> <r_psp_Prime_NBLong_Elec>
531.183531962495

> <r_psp_Prime_NBLong_SGB>
-448.98894902577

> <r_psp_Prime_Self_SGB>
-17581.0168258313

> <r_psp_Prime_Hbond>
-216.193307931966

> <r_psp_Prime_Packing>
-34.6524568401665

> <r_psp_Prime_SelfCont>
-44.4978010049576

> <s_psp_Prime_MMGBSA_Input_Structure_Hash>
780bff278f95cdec030ead5b1765611c26321cdab7c0cb96db685c96

> <i_psp_number_heavy_atoms>
26

> <s_psp_MMGBSA_moved_residues>


> <r_psp_MMGBSA_dG_Bind>
-47.7189906306794

> <r_psp_MMGBSA_dG_Bind_Coulomb>
-24.5970240078768

> <r_psp_MMGBSA_dG_Bind_Covalent>
-0.42119032312803

> <r_psp_MMGBSA_dG_Bind_Hbond>
-2.57650199351082

> <r_psp_MMGBSA_dG_Bind_Lipo>
-11.8805370331041

> <r_psp_MMGBSA_dG_Bind_Packing>
-4.45546164939323

> <r_psp_MMGBSA_dG_Bind_SelfCont>
0

> <r_psp_MMGBSA_dG_Bind_Solv_GB>
37.7119659835128

> <r_psp_MMGBSA_dG_Bind_vdW>
-41.5002416071741

> <r_psp_Lig_Strain_Energy>
3.40700488806215

> <r_psp_Lig_Strain_Coulomb>
1.13343557327751

> <r_psp_Lig_Strain_Covalent>
-0.421352191027118

> <r_psp_Lig_Strain_Hbond>
0

> <r_psp_Lig_Strain_Lipo>
0.0055026797462876

> <r_psp_Lig_Strain_Packing>
0

> <r_psp_Lig_Strain_SelfCont>
0

> <r_psp_Lig_Strain_Solv_GB>
-0.202966343000867

> <r_psp_Lig_Strain_vdW>
2.89238516906634

> <r_psp_Ligand_Energy>
25.2146834693382

> <r_psp_Ligand_Coulomb>
1.35475454663005

> <r_psp_Ligand_Covalent>
17.6775845384791

> <r_psp_Ligand_Hbond>
0

> <r_psp_Ligand_Lipo>
-2.43303173910119

> <r_psp_Ligand_Packing>
0

> <r_psp_Ligand_SelfCont>
0

> <r_psp_Ligand_Solv_GB>
-12.0287340276858

> <r_psp_Ligand_vdW>
20.6441101510161

> <r_psp_Complex_Energy>
-14820.3850542758

> <r_psp_Complex_Coulomb>
-11453.6517949219

> <r_psp_Complex_Covalent>
1608.42022800336

> <r_psp_Complex_Hbond>
-216.193307931966

> <r_psp_Complex_Lipo>
-915.825109102376

> <r_psp_Complex_Packing>
-34.6524568401665

> <r_psp_Complex_SelfCont>
-44.4978010049576

> <r_psp_Complex_Solv_GB>
-2008.25387494437

> <r_psp_Complex_vdW>
-1755.7309375334

> <r_psp_Receptor_Energy>
-14797.8807471144

> <r_psp_Receptor_Coulomb>
-11430.4095254606

> <r_psp_Receptor_Covalent>
1591.163833788

> <r_psp_Receptor_Hbond>
-213.616805938455

> <r_psp_Receptor_Lipo>
-901.511540330171

> <r_psp_Receptor_Packing>
-30.1969951907733

> <r_psp_Receptor_SelfCont>
-44.4978010049576

> <r_psp_Receptor_Solv_GB>
-2033.93710690019

> <r_psp_Receptor_vdW>
-1734.87480607724

> <r_psp_MMGBSA_dG_Bind(NS)>
-51.1259955187415

> <r_psp_MMGBSA_dG_Bind(NS)_Coulomb>
-25.7304595811547

> <r_psp_MMGBSA_dG_Bind(NS)_Covalent>
0.000161867899123536

> <r_psp_MMGBSA_dG_Bind(NS)_Hbond>
-2.57650199351082

> <r_psp_MMGBSA_dG_Bind(NS)_Lipo>
-11.8860397128504

> <r_psp_MMGBSA_dG_Bind(NS)_Packing>
-4.45546164939323

> <r_psp_MMGBSA_dG_Bind(NS)_SelfCont>
0

> <r_psp_MMGBSA_dG_Bind(NS)_Solv_GB>
37.9149323265137

> <r_psp_MMGBSA_dG_Bind(NS)_vdW>
-44.3926267762404

> <r_psp_Rec_Strain_Energy>
0

> <r_psp_Rec_Strain_Coulomb>
0

> <r_psp_Rec_Strain_Covalent>
0

> <r_psp_Rec_Strain_Hbond>
0

> <r_psp_Rec_Strain_Lipo>
0

> <r_psp_Rec_Strain_Packing>
0

> <r_psp_Rec_Strain_SelfCont>
0

> <r_psp_Rec_Strain_Solv_GB>
0

> <r_psp_Rec_Strain_vdW>
0

> <r_psp_Prime_MMGBSA_ligand_efficiency>
-1.83534579348767

> <r_psp_Prime_MMGBSA_ligand_efficiency_sa>
-2.7530186902315

> <r_psp_Prime_MMGBSA_ligand_efficiency_ln>
-11.2066483708357

> <LIBRARY>
Anticancer

> <MOLWEIGHT>
356.43

> <No>
61215

> <PLATE>
PLATE_0766

> <WELL>
G03

> <s_m_subgroup_title>
Top5_Leads->prime_mmgbsa_F13-out2

> <s_m_subgroupid>
Top5_Leads->prime_mmgbsa_F13-out21

> <b_m_subgroup_collapsed>
0

$$$$
